@<TRIPOS>MOLECULE
*****
 58 67 0 0 0
SMALL
GASTEIGER

@<TRIPOS>ATOM
      1 N         110.0420  135.2060   88.5110 N.am    1  UNL1       -0.1607
      2 C         109.8140  136.0640   87.4030 C.2     1  UNL1        0.3475
      3 O         108.8870  135.7500   86.6150 O.2     1  UNL1       -0.2485
      4 N         110.5450  137.2340   87.1210 N.am    1  UNL1       -0.1647
      5 C         109.2880  134.0280   88.7750 C.2     1  UNL1        0.0745
      6 C         109.2420  132.9360   87.9350 C.2     1  UNL1        0.0146
      7 C         108.4860  131.8070   88.2390 C.2     1  UNL1        0.0069
      8 C         108.2500  130.5960   87.6150 C.2     1  UNL1        0.0213
      9 C         107.7490  131.7420   89.4060 C.3     1  UNL1        0.1477
     10 C         107.3990  129.8120   88.3670 C.2     1  UNL1        0.1301
     11 N         107.1130  130.5470   89.4560 N.2     1  UNL1       -0.2589
     12 C         107.7970  132.8370   90.2450 C.2     1  UNL1        0.0035
     13 C         108.5480  133.9510   89.9350 C.2     1  UNL1        0.0143
     14 C         106.9010  128.4670   88.0610 C.2     1  UNL1        0.2698
     15 N         107.5120  127.3490   88.6830 N.am    1  UNL1       -0.2572
     16 C         107.2130  125.9780   88.5410 C.2     1  UNL1        0.0386
     17 C         108.6220  127.3690   89.6530 C.3     1  UNL1        0.1002
     18 C         106.0260  125.3230   88.3260 C.2     1  UNL1        0.0544
     19 C         108.3480  125.2220   88.6530 C.3     1  UNL1        0.0627
     20 C         105.9770  123.9310   88.2250 C.2     1  UNL1        0.2137
     21 C         107.1420  123.2360   88.3460 C.2     1  UNL1        0.1162
     22 O         104.7310  123.3570   88.0070 O.2     1  UNL1       -0.2849
     23 N         107.3510  121.9060   88.2870 N.2     1  UNL1       -0.2413
     24 C         108.3700  123.8650   88.5650 C.2     1  UNL1        0.0013
     25 C         108.6600  121.6960   88.4610 C.2     1  UNL1        0.0944
     26 C         109.3250  122.8890   88.6360 C.2     1  UNL1       -0.0048
     27 C         110.7730  123.1190   88.8580 C.3     1  UNL1        0.0324
     28 C         109.5340  126.2590   88.8700 C.3     1  UNL1        0.0459
     29 O         105.9570  128.2530   87.2700 O.2     1  UNL1       -0.2679
     30 C         110.1040  125.5570   90.2420 C.3     1  UNL1        0.0972
     31 CL        108.9950  125.8540   91.5470 Cl      1  UNL1       -0.1136
     32 C         110.3100  138.0880   86.0100 C.2     1  UNL1        0.0571
     33 C         110.9650  137.9790   84.8040 C.2     1  UNL1        0.0141
     34 C         110.7250  138.8140   83.7360 C.2     1  UNL1        0.0198
     35 C         109.7940  139.8180   83.8370 C.2     1  UNL1        0.0779
     36 N         109.3210  140.7760   83.0340 N.2     1  UNL1       -0.2411
     37 C         109.1210  139.9580   85.0220 C.2     1  UNL1        0.0029
     38 C         108.3890  141.5180   83.6330 C.2     1  UNL1        0.1347
     39 C         108.2280  141.0310   84.9100 C.2     1  UNL1        0.0213
     40 C         109.3810  139.0980   86.0970 C.3     1  UNL1        0.0711
     41 C         107.6920  142.6280   83.0240 C.2     1  UNL1        0.2702
     42 O         108.4150  143.4900   82.3950 O.2     1  UNL1       -0.2679
     43 N         106.3170  142.8340   83.0630 N.am    1  UNL1       -0.2572
     44 C         105.5930  143.9880   82.4920 C.3     1  UNL1        0.1002
     45 C         105.2960  142.0490   83.6380 C.2     1  UNL1        0.0386
     46 C         104.7880  144.3080   83.8880 C.3     1  UNL1        0.0459
     47 C         104.3120  142.8390   84.1420 C.3     1  UNL1        0.0627
     48 C         103.2080  142.3170   84.7300 C.2     1  UNL1        0.0013
     49 C         103.0800  140.9250   84.8200 C.2     1  UNL1        0.1162
     50 C         102.0660  142.8640   85.3220 C.2     1  UNL1       -0.0048
     51 C         104.0560  140.0910   84.3210 C.2     1  UNL1        0.2137
     52 N         101.9230  140.6570   85.4330 N.2     1  UNL1       -0.2413
     53 C         105.1500  140.6620   83.7370 C.2     1  UNL1        0.0544
     54 O         103.9520  138.6990   84.3990 O.2     1  UNL1       -0.2849
     55 C         101.3040  141.8040   85.7390 C.2     1  UNL1        0.0944
     56 C         101.8050  144.3100   85.4360 C.3     1  UNL1        0.0324
     57 C         103.4060  144.7690   83.0870 C.3     1  UNL1        0.0972
     58 CL        103.5650  146.5420   82.9220 Cl      1  UNL1       -0.1136
@<TRIPOS>BOND
     1     1     2   am
     2     1     5    1
     3     2     3    2
     4     2     4   am
     5     4    32    1
     6     5     6    2
     7     5    13    1
     8     6     7    1
     9     7     8    2
    10     7     9    1
    11     8    10    1
    12     9    11    1
    13     9    12    1
    14    10    14    1
    15    10    11    2
    16    12    13    2
    17    14    29    2
    18    14    15   am
    19    15    16    1
    20    15    17    1
    21    16    18    2
    22    16    19    1
    23    17    28    1
    24    18    20    1
    25    19    24    1
    26    19    28    1
    27    20    22    1
    28    20    21    2
    29    21    23    1
    30    21    24    1
    31    23    25    2
    32    24    26    2
    33    25    26    1
    34    26    27    1
    35    28    30    1
    36    30    31    1
    37    32    33    2
    38    32    40    1
    39    33    34    1
    40    34    35    2
    41    35    36    1
    42    35    37    1
    43    36    38    2
    44    37    39    2
    45    37    40    1
    46    38    41    1
    47    38    39    1
    48    41    42    2
    49    41    43   am
    50    43    44    1
    51    43    45    1
    52    44    46    1
    53    45    53    2
    54    45    47    1
    55    46    57    1
    56    46    47    1
    57    47    48    1
    58    48    49    1
    59    48    50    2
    60    49    51    2
    61    49    52    1
    62    50    56    1
    63    50    55    1
    64    51    53    1
    65    51    54    1
    66    52    55    2
    67    57    58    1
